Version 4.1
SHEET 1 1980 680
WIRE 288 32 80 32
WIRE 80 80 80 32
WIRE 288 128 288 32
WIRE 80 192 80 160
WIRE 80 208 80 192
WIRE 80 320 80 272
WIRE 288 320 288 208
FLAG 80 320 0
FLAG 288 320 0
FLAG 80 192 Vout
SYMBOL voltage 288 112 R0
WINDOW 123 0 0 Left 0
WINDOW 39 0 0 Left 0
SYMATTR InstName V1
SYMATTR Value PULSE(0V 5V 0s 1us 1us 5ms 10ms)
SYMBOL res 64 64 R0
SYMATTR InstName R1
SYMATTR Value 1k
SYMBOL cap 64 208 R0
SYMATTR InstName C1
SYMATTR Value 1µ
TEXT 128 392 Left 2 !.tran 20ms
