Version 4.1
SHEET 1 880 680
WIRE 224 -48 32 -48
WIRE 32 -16 32 -48
WIRE 32 128 32 64
WIRE 224 128 224 -48
WIRE 32 256 32 208
WIRE 32 272 32 256
WIRE 32 384 32 336
WIRE 224 384 224 208
FLAG 32 384 0
FLAG 224 384 0
FLAG 32 256 Vout
SYMBOL voltage 224 112 R0
WINDOW 123 0 0 Left 0
WINDOW 39 0 0 Left 0
SYMATTR InstName V1
SYMATTR Value PULSE(0V 5V 0 1us 1us 10ms 20ms)
SYMBOL res 16 -32 R0
SYMATTR InstName R1
SYMATTR Value 50
SYMBOL ind 16 112 R0
SYMATTR InstName L1
SYMATTR Value 100m
SYMBOL cap 16 272 R0
SYMATTR InstName C1
SYMATTR Value 1µ
TEXT -8 408 Left 2 !.tran 20ms
